data/pglib_opf_case2000_goc_comgen4.py
# combine generator at the same bus and only have generators with open status
# add up Pgmax Qgmin Qgmax at the same bus with careful adjustment
# mean(gencost[:, -3:]) for buses with multiple generators with careful adjustment 
# Pgmin = 0   branch = [-360 360]

from numpy import array

def pglib_opf_case2000_goc_comgen4():
	ppc = {"version": '2'}

##-----  Power Flow Data  -----##
## system MVA base
	ppc["baseMVA"] = 100.0

#flag for Security Constrained OPF(SCOPF)
	ppc["scopf"] = 1

## bus data
# 0bus_i 1type 2Pd 3Qd 4Gs 5Bs 6area 7Vm 8Va 9baseKV 10zone 11Vmax 12Vmin
	ppc["bus"] = array([
     [1, 1, 0.0, 0.0, 0.0, 0.0, 1.0, 1.0, 0.0, 138.0, 1.0, 1.1, 0.9],
     [2, 1, 0.0, 0.0, 0.0, 0.0, 1.0, 1.0, 0.0, 69.0, 1.0, 1.1, 0.9],
     [3, 1, 63.032599, 30.499177, 0.0, 0.0, 1.0, 1.0, 0.0, 138.0, 1.0, 1.1, 0.9],
     [4, 1, 39.872692, 2.686688, 0.0, 0.0, 1.0, 1.0, 0.0, 69.0, 1.0, 1.1, 0.9],
     [5, 1, 59.86117, 29.465619, 0.0, 0.0, 1.0, 1.0, 0.0, 69.0, 1.0, 1.1, 0.9],
     [6, 1, 52.61757, 4.2656153, 0.0, 0.0, 1.0, 1.0, 0.0, 69.0, 1.0, 1.1, 0.9],
     [7, 1, 56.669624, 12.18891, 0.0, 0.0, 1.0, 1.0, 0.0, 138.0, 1.0, 1.1, 0.9],
     [8, 1, 39.112858, 10.233215, 0.0, 0.0, 1.0, 1.0, 0.0, 69.0, 1.0, 1.1, 0.9],
     [9, 1, 0.0, 0.0, 0.0, 0.0, 1.0, 1.0, 0.0, 138.0, 1.0, 1.1, 0.9],
     [10, 1, 0.0, 0.0, 0.0, 0.0, 1.0, 1.0, 0.0, 69.0, 1.0, 1.1, 0.9],
     [11, 1, 88.082752, 28.939717, 0.0, 0.0, 1.0, 1.0, 0.0, 138.0, 1.0, 1.1, 0.9],
     [12, 1, 0.0, 0.0, 0.0, 0.0, 1.0, 1.0, 0.0, 138.0, 1.0, 1.1, 0.9],
     [13, 1, 82.616913, 17.693369, 0.0, 0.0, 1.0, 1.0, 0.0, 69.0, 1.0, 1.1, 0.9],
     [14, 1, 0.0, 0.0, 0.0, 0.0, 1.0, 1.0, 0.0, 138.0, 1.0, 1.1, 0.9],
     [15, 1, 124.08794, 60.300901, 0.0, 0.0, 1.0, 1.0, 0.0, 138.0, 1.0, 1.1, 0.9],
     [16, 1, 58.164337, 11.289482, 0.0, 0.0, 1.0, 1.0, 0.0, 69.0, 1.0, 1.1, 0.9],
     [17, 1, 45.635228, 27.013902, 0.0, 0.0, 1.0, 1.0, 0.0, 69.0, 1.0, 1.1, 0.9],
     [18, 1, 0.0, 0.0, 0.0, 0.0, 1.0, 1.0, 0.0, 69.0, 1.0, 1.1, 0.9],
     [19, 1, 16.253058, 1.8417025, 0.0, 0.0, 1.0, 1.0, 0.0, 69.0, 1.0, 1.1, 0.9],
     [20, 1, 0.0, 0.0, 0.0, 0.0, 1.0, 1.0, 0.0, 138.0, 1.0, 1.1, 0.9],
     [21, 1, 108.94234, 13.34786, 0.0, 0.0, 1.0, 1.0, 0.0, 69.0, 1.0, 1.1, 0.9],
     [22, 1, 0.0, 0.0, 0.0, 0.0, 1.0, 1.0, 0.0, 138.0, 1.0, 1.1, 0.9],
     [23, 1, 47.797985, 7.0533189, 0.0, 0.0, 1.0, 1.0, 0.0, 69.0, 1.0, 1.1, 0.9],
     [24, 1, 13.259455, 2.933591, 0.0, 0.0, 1.0, 1.0, 0.0, 69.0, 1.0, 1.1, 0.9],
     [25, 1, 16.010345, 1.912179, 0.0, 0.0, 1.0, 1.0, 0.0, 69.0, 1.0, 1.1, 0.9],
     [26, 1, 0.0, 0.0, 0.0, 0.0, 1.0, 1.0, 0.0, 138.0, 1.0, 1.1, 0.9],
     [27, 1, 60.234406, 15.982269, 0.0, 0.0, 1.0, 1.0, 0.0, 69.0, 1.0, 1.1, 0.9],
     [28, 1, 0.0, 0.0, 0.0, 0.0, 1.0, 1.0, 0.0, 138.0, 1.0, 1.1, 0.9],
     [29, 1, 79.633262, 31.091927, 0.0, 0.0, 1.0, 1.0, 0.0, 69.0, 1.0, 1.1, 0.9],
     [30, 1, 59.447927, 1.3231653, 0.0, 0.0, 1.0, 1.0, 0.0, 138.0, 1.0, 1.1, 0.9],
     [31, 1, 0.0, 0.0, 0.0, 0.0, 1.0, 1.0, 0.0, 138.0, 1.0, 1.1, 0.9],
     [32, 1, 0.0, 0.0, 0.0, 0.0, 1.0, 1.0, 0.0, 69.0, 1.0, 1.1, 0.9],
     [33, 1, 51.149767, 11.818091, 0.0, 0.0, 1.0, 1.0, 0.0, 138.0, 1.0, 1.1, 0.9],
     [34, 1, 54.772259, 14.831048, 0.0, 0.0, 1.0, 1.0, 0.0, 138.0, 1.0, 1.1, 0.9],
     [35, 1, 61.33575, 11.422704, 0.0, 0.0, 1.0, 1.0, 0.0, 69.0, 1.0, 1.1, 0.9],
     [36, 1, 46.058696, 5.184763, 0.0, 0.0, 1.0, 1.0, 0.0, 69.0, 1.0, 1.1, 0.9],
     [37, 1, 71.28723, 8.0567184, 0.0, 0.0, 1.0, 1.0, 0.0, 69.0, 1.0, 1.1, 0.9],
     [38, 1, 20.498477, 5.1283346, 0.0, 0.0, 1.0, 1.0, 0.0, 69.0, 1.0, 1.1, 0.9],
     [39, 1, 0.0, 0.0, 0.0, 0.0, 1.0, 1.0, 0.0, 138.0, 1.0, 1.1, 0.9],
     [40, 1, 56.791513, 31.333153, 0.0, 0.0, 1.0, 1.0, 0.0, 69.0, 1.0, 1.1, 0.9],
     [41, 1, 33.346278, 11.155067, 0.0, 0.0, 1.0, 1.0, 0.0, 69.0, 1.0, 1.1, 0.9],
     [42, 1, 0.0, 0.0, 0.0, 0.0, 1.0, 1.0, 0.0, 138.0, 1.0, 1.1, 0.9],
     [43, 1, 0.0, 0.0, 0.0, 0.0, 1.0, 1.0, 0.0, 69.0, 1.0, 1.1, 0.9],
     [44, 1, 67.732614, 38.37608, 0.0, 0.0, 1.0, 1.0, 0.0, 138.0, 1.0, 1.1, 0.9],
     [45, 1, 20.457976, 3.826255, 0.0, 0.0, 1.0, 1.0, 0.0, 69.0, 1.0, 1.1, 0.9],
     [46, 1, 21.41017, 4.0268279, 0.0, 0.0, 1.0, 1.0, 0.0, 69.0, 1.0, 1.1, 0.9],
     [47, 1, 0.0, 0.0, 0.0, 0.0, 1.0, 1.0, 0.0, 345.0, 1.0, 1.1, 0.9],
     [48, 1, 0.0, 0.0, 0.0, 0.0, 1.0, 1.0, 0.0, 138.0, 1.0, 1.1, 0.9],
     [49, 1, 0.0, 0.0, 0.0, 0.0, 1.0, 1.0, 0.0, 69.0, 1.0, 1.1, 0.9],
     [50, 1, 42.770987, 18.207567, 0.0, 0.0, 1.0, 1.0, 0.0, 345.0, 1.0, 1.1, 0.9],
     [51, 1, 26.867091, 13.887133, 0.0, 0.0, 1.0, 1.0, 0.0, 69.0, 1.0, 1.1, 0.9],
     [52, 1, 0.0, 0.0, 0.0, 0.0, 1.0, 1.0, 0.0, 345.0, 1.0, 1.1, 0.9],
     [53, 1, 0.0, 0.0, 0.0, 0.0, 1.0, 1.0, 0.0, 138.0, 1.0, 1.1, 0.9],
     [54, 1, 65.431926, 21.104749, 0.0, 0.0, 1.0, 1.0, 0.0, 345.0, 1.0, 1.1, 0.9],
     [55, 1, 0.0, 0.0, 0.0, 0.0, 1.0, 1.0, 0.0, 138.0, 1.0, 1.1, 0.9],
     [56, 1, 0.0, 0.0, 0.0, 0.0, 1.0, 1.0, 0.0, 69.0, 1.0, 1.1, 0.9],
     [57, 1, 39.42829, 2.9001465, 0.0, 0.0, 1.0, 1.0, 0.0, 138.0, 1.0, 1.1, 0.9],
     [58, 1, 29.12641, 11.744102, 0.0, 0.0, 1.0, 1.0, 0.0, 69.0, 1.0, 1.1, 0.9],
     [59, 1, 21.808205, 7.3975388, 0.0, 0.0, 1.0, 1.0, 0.0, 69.0, 1.0, 1.1, 0.9],
     [60, 1, 16.084567, 0.5157274, 0.0, 0.0, 1.0, 1.0, 0.0, 69.0, 1.0, 1.1, 0.9],
     [61, 1, 8.1954502, 2.4931054, 0.0, 0.0, 1.0, 1.0, 0.0, 69.0, 1.0, 1.1, 0.9],
     [62, 1, 7.7017986, 4.9119172, 0.0, 0.0, 1.0, 1.0, 0.0, 69.0, 1.0, 1.1, 0.9],
     [63, 1, 0.0, 0.0, 0.0, 0.0, 1.0, 1.0, 0.0, 138.0, 1.0, 1.1, 0.9],
     [64, 1, 0.0, 0.0, 0.0, 0.0, 1.0, 1.0, 0.0, 69.0, 1.0, 1.1, 0.9],
     [65, 1, 16.845318, 8.7799289, 0.0, 0.0, 1.0, 1.0, 0.0, 138.0, 1.0, 1.1, 0.9],
     [66, 1, 7.8439512, 2.9993174, 0.0, 0.0, 1.0, 1.0, 0.0, 69.0, 1.0, 1.1, 0.9],
     [67, 1, 0.0, 0.0, 0.0, 0.0, 1.0, 1.0, 0.0, 138.0, 1.0, 1.1, 0.9],
     [68, 1, 0.0, 0.0, 0.0, 0.0, 1.0, 1.0, 0.0, 69.0, 1.0, 1.1, 0.9],
     [69, 1, 9.5930041, 5.0816634, 0.0, 0.0, 1.0, 1.0, 0.0, 138.0, 1.0, 1.1, 0.9],
     [70, 1, 7.3159881, 0.62437414, 0.0, 0.0, 1.0, 1.0, 0.0, 69.0, 1.0, 1.1, 0.9],
     [71, 1, 0.0, 0.0, 0.0, 0.0, 1.0, 1.0, 0.0, 138.0, 1.0, 1.1, 0.9],
     [72, 1, 12.029727, 4.0129322, 0.0, 0.0, 1.0, 1.0, 0.0, 69.0, 1.0, 1.1, 0.9],
     [73, 1, 0.0, 0.0, 0.0, 0.0, 1.0, 1.0, 0.0, 138.0, 1.0, 1.1, 0.9],
     [74, 1, 12.857525, 1.0586832, 0.0, 0.0, 1.0, 1.0, 0.0, 69.0, 1.0, 1.1, 0.9],
     [75, 1, 14.933717, 4.8782627, 0.0, 0.0, 1.0, 1.0, 0.0, 69.0, 1.0, 1.1, 0.9],
     [76, 1, 0.0, 0.0, 0.0, 0.0, 1.0, 1.0, 0.0, 138.0, 1.0, 1.1, 0.9],
     [77, 1, 0.0, 0.0, 0.0, 0.0, 1.0, 1.0, 0.0, 69.0, 1.0, 1.1, 0.9],
     [78, 1, 26.426587, 4.6764255, 0.0, 0.0, 1.0, 1.0, 0.0, 138.0, 1.0, 1.1, 0.9],
     [79, 1, 0.0, 0.0, 0.0, 0.0, 1.0, 1.0, 0.0, 138.0, 1.0, 1.1, 0.9],
     [80, 1, 0.0, 0.0, 0.0, 0.0, 1.0, 1.0, 0.0, 69.0, 1.0, 1.1, 0.9],
     [81, 1, 8.8550628, 1.6739562, 0.0, 0.0, 1.0, 1.0, 0.0, 138.0, 1.0, 1.1, 0.9],
     [82, 1, 7.7923374, 0.51391182, 0.0, 0.0, 1.0, 1.0, 0.0, 69.0, 1.0, 1.1, 0.9],
     [83, 1, 0.0, 0.0, 0.0, 0.0, 1.0, 1.0, 0.0, 138.0, 1.0, 1.1, 0.9],
     [84, 1, 16.143781, 5.1892803, 0.0, 0.0, 1.0, 1.0, 0.0, 138.0, 1.0, 1.1, 0.9],
     [85, 1, 0.0, 0.0, 0.0, 0.0, 1.0, 1.0, 0.0, 138.0, 1.0, 1.1, 0.9],
     [86, 1, 0.0, 0.0, 0.0, 0.0, 1.0, 1.0, 0.0, 138.0, 1.0, 1.1, 0.9],
     [87, 1, 0.0, 0.0, 0.0, 0.0, 1.0, 1.0, 0.0, 69.0, 1.0, 1.1, 0.9],
     [88, 1, 52.386693, 12.736043, 0.0, 0.0, 1.0, 1.0, 0.0, 138.0, 1.0, 1.1, 0.9],
     [89, 1, 0.0, 0.0, 0.0, 0.0, 1.0, 1.0, 0.0, 138.0, 1.0, 1.1, 0.9],
     [90, 1, 0.0, 0.0, 0.0, 0.0, 1.0, 1.0, 0.0, 69.0, 1.0, 1.1, 0.9],
     [91, 1, 63.939019, 10.266533, 0.0, 0.0, 1.0, 1.0, 0.0, 138.0, 1.0, 1.1, 0.9],
     [92, 1, 29.053947, 14.045927, 0.0, 0.0, 1.0, 1.0, 0.0, 69.0, 1.0, 1.1, 0.9],
     [93, 1, 18.532061, 4.3305549, 0.0, 0.0, 1.0, 1.0, 0.0, 69.0, 1.0, 1.1, 0.9],
     [94, 1, 19.487602, 3.2734475, 0.0, 0.0, 1.0, 1.0, 0.0, 69.0, 1.0, 1.1, 0.9],
     [95, 1, 60.043064, 15.923783, 0.0, 0.0, 1.0, 1.0, 0.0, 69.0, 1.0, 1.1, 0.9],
     [96, 1, 0.0, 0.0, 0.0, 0.0, 1.0, 1.0, 0.0, 345.0, 1.0, 1.1, 0.9],
     [97, 1, 0.0, 0.0, 0.0, 0.0, 1.0, 1.0, 0.0, 138.0, 1.0, 1.1, 0.9],
     [98, 1, 0.0, 0.0, 0.0, 0.0, 1.0, 1.0, 0.0, 69.0, 1.0, 1.1, 0.9],
     [99, 1, 72.519598, 26.914313, 0.0, 0.0, 1.0, 1.0, 0.0, 138.0, 1.0, 1.1, 0.9],
     [100, 1, 0.0, 0.0, 0.0, 0.0, 1.0, 1.0, 0.0, 138.0, 1.0, 1.1, 0.9],
     [101, 1, 0.0, 0.0, 0.0, 0.0, 1.0, 1.0, 0.0, 69.0, 1.0, 1.1, 0.9],
     [102, 1, 80.213195, 11.697076, 0.0, 0.0, 1.0, 1.0, 0.0, 138.0, 1.0, 1.1, 0.9],
     [103, 1, 42.864125, 2.0052198, 0.0, 0.0, 1.0, 1.0, 0.0, 69.0, 1.0, 1.1, 0.9],
     [104, 1, 59.503172, 21.216872, 0.0, 0.0, 1.0, 1.0, 0.0, 69.0, 1.0, 1.1, 0.9],
     [105, 1, 0.0, 0.0, 0.0, 0.0, 1.0, 1.0, 0.0, 345.0, 1.0, 1.1, 0.9],
     [106, 1, 0.0, 0.0, 0.0, 0.0, 1.0, 1.0, 0.0, 138.0, 1.0, 1.1, 0.9],
     [107, 1, 0.0, 0.0, 0.0, 0.0, 1.0, 1.0, 0.0, 69.0, 1.0, 1.1, 0.9],
     [108, 1, 78.973787, 26.897779, 0.0, 0.0, 1.0, 1.0, 0.0, 345.0, 1.0, 1.1, 0.9],
     [109, 1, 42.500261, 11.215608, 0.0, 0.0, 1.0, 1.0, 0.0, 69.0, 1.0, 1.1, 0.9],
     [110, 1, 0.0, 0.0, 0.0, 0.0, 1.0, 1.0, 0.0, 138.0, 1.0, 1.1, 0.9],
     [111, 1, 0.0, 0.0, 0.0, 0.0, 1.0, 1.0, 0.0, 69.0, 1.0, 1.1, 0.9],
     [112, 1, 70.32463, 16.641277, 0.0, 0.0, 1.0, 1.0, 0.0, 138.0, 1.0, 1.1, 0.9],
     [113, 1, 44.282331, 5.1595078, 0.0, 0.0, 1.0, 1.0, 0.0, 69.0, 1.0, 1.1, 0.9],
     [114, 1, 6.6539341, 1.858247, 0.0, 0.0, 1.0, 1.0, 0.0, 69.0, 1.0, 1.1, 0.9],
     [115, 1, 38.288963, 16.397994, 0.0, 0.0, 1.0, 1.0, 0.0, 69.0, 1.0, 1.1, 0.9],
     [116, 1, 14.043978, 3.0853286, 0.0, 0.0, 1.0, 1.0, 0.0, 69.0, 1.0, 1.1, 0.9],
     [117, 1, 33.648509, 1.2250378, 0.0, 0.0, 1.0, 1.0, 0.0, 69.0, 1.0, 1.1, 0.9],
     [118, 1, 14.131552, 3.2964995, 0.0, 0.0, 1.0, 1.0, 0.0, 69.0, 1.0, 1.1, 0.9],
     [119, 1, 42.68915, 11.775552, 0.0, 0.0, 1.0, 1.0, 0.0, 69.0, 1.0, 1.1, 0.9],
     [120, 1, 63.129219, 43.045801, 0.0, 0.0, 1.0, 1.0, 0.0, 69.0, 1.0, 1.1, 0.9],
     [121, 1, 0.0, 0.0, 0.0, 0.0, 1.0, 1.0, 0.0, 138.0, 1.0, 1.1, 0.9],
     [122, 1, 0.0, 0.0, 0.0, 0.0, 1.0, 1.0, 0.0, 69.0, 1.0, 1.1, 0.9],
     [123, 1, 77.38747, 23.99223, 0.0, 0.0, 1.0, 1.0, 0.0, 138.0, 1.0, 1.1, 0.9],
     [124, 1, 0.0, 0.0, 0.0, 0.0, 1.0, 1.0, 0.0, 138.0, 1.0, 1.1, 0.9],
     [125, 1, 0.0, 0.0, 0.0, 0.0, 1.0, 1.0, 0.0, 69.0, 1.0, 1.1, 0.9],
     [126, 1, 50.036685, 18.8862, 0.0, 0.0, 1.0, 1.0, 0.0, 138.0, 1.0, 1.1, 0.9],
     [127, 1, 25.701199, 6.4513541, 0.0, 0.0, 1.0, 1.0, 0.0, 69.0, 1.0, 1.1, 0.9],
     [128, 1, 31.024184, 7.4663783, 0.0, 0.0, 1.0, 1.0, 0.0, 69.0, 1.0, 1.1, 0.9],
     [129, 1, 0.0, 0.0, 0.0, 0.0, 1.0, 1.0, 0.0, 69.0, 1.0, 1.1, 0.9],
     [130, 1, 73.035237, 12.276959, 0.0, 0.0, 1.0, 1.0, 0.0, 69.0, 1.0, 1.1, 0.9],
     [131, 1, 41.142072, 21.889228, 0.0, 0.0, 1.0, 1.0, 0.0, 69.0, 1.0, 1.1, 0.9],
     [132, 1, 0.0, 0.0, 0.0, 0.0, 1.0, 1.0, 0.0, 138.0, 1.0, 1.1, 0.9],
     [133, 1, 70.971277, 13.03429, 0.0, 0.0, 1.0, 1.0, 0.0, 69.0, 1.0, 1.1, 0.9],
     [134, 1, 0.0, 0.0, 0.0, 0.0, 1.0, 1.0, 0.0, 138.0, 1.0, 1.1, 0.9],
     [135, 1, 0.0, 0.0, 0.0, 0.0, 1.0, 1.0, 0.0, 138.0, 1.0, 1.1, 0.9],
     [136, 1, 0.0, 0.0, 0.0, 0.0, 1.0, 1.0, 0.0, 69.0, 1.0, 1.1, 0.9],
     [137, 1, 135.163, 17.105692, 0.0, 0.0, 1.0, 1.0, 0.0, 138.0, 1.0, 1.1, 0.9],
     [138, 1, 43.01499, 5.0493889, 0.0, 0.0, 1.0, 1.0, 0.0, 69.0, 1.0, 1.1, 0.9],
     [139, 1, 0.0, 0.0, 0.0, 0.0, 1.0, 1.0, 0.0, 138.0, 1.0, 1.1, 0.9],
     [140, 1, 97.888643, 58.600837, 0.0, 0.0, 1.0, 1.0, 0.0, 69.0, 1.0, 1.1, 0.9],
     [141, 1, 0.0, 0.0, 0.0, 0.0, 1.0, 1.0, 0.0, 138.0, 1.0, 1.1, 0.9],
     [142, 1, 0.0, 0.0, 0.0, 0.0, 1.0, 1.0, 0.0, 138.0, 1.0, 1.1, 0.9],
     [143, 1, 0.0, 0.0, 0.0, 0.0, 1.0, 1.0, 0.0, 69.0, 1.0, 1.1, 0.9],
     [144, 1, 80.88225, 15.434356, 0.0, 0.0, 1.0, 1.0, 0.0, 138.0, 1.0, 1.1, 0.9],
     [145, 1, 45.810324, 5.309578, 0.0, 0.0, 1.0, 1.0, 0.0, 69.0, 1.0, 1.1, 0.9],
     [146, 1, 39.973054, 8.7672214, 0.0, 0.0, 1.0, 1.0, 0.0, 69.0, 1.0, 1.1, 0.9],
     [147, 1, 0.0, 0.0, 0.0, 0.0, 1.0, 1.0, 0.0, 138.0, 1.0, 1.1, 0.9],
     [148, 1, 0.0, 0.0, 0.0, 0.0, 1.0, 1.0, 0.0, 69.0, 1.0, 1.1, 0.9],
     [149, 1, 69.114811, 16.155095, 0.0, 0.0, 1.0, 1.0, 0.0, 138.0, 1.0, 1.1, 0.9],
     [150, 1, 50.329488, 6.2763458, 0.0, 0.0, 1.0, 1.0, 0.0, 69.0, 1.0, 1.1, 0.9],
     [151, 1, 0.0, 0.0, 0.0, 0.0, 1.0, 1.0, 0.0, 138.0, 1.0, 1.1, 0.9],
     [152, 1, 0.0, 0.0, 0.0, 0.0, 1.0, 1.0, 0.0, 69.0, 1.0, 1.1, 0.9],
     [153, 1, 54.464316, 6.3389867, 0.0, 0.0, 1.0, 1.0, 0.0, 138.0, 1.0, 1.1, 0.9],
     [154, 1, 76.293089, 16.102405, 0.0, 0.0, 1.0, 1.0, 0.0, 69.0, 1.0, 1.1, 0.9],
     [155, 1, 48.138363, 2.1361487, 0.0, 0.0, 1.0, 1.0, 0.0, 69.0, 1.0, 1.1, 0.9],
     [156, 1, 48.095052, 21.38875, 0.0, 0.0, 1.0, 1.0, 0.0, 69.0, 1.0, 1.1, 0.9],
     [157, 1, 45.6242, 11.938822, 0.0, 0.0, 1.0, 1.0, 0.0, 138.0, 1.0, 1.1, 0.9],
     [158, 1, 71.854584, 17.031862, 0.0, 0.0, 1.0, 1.0, 0.0, 138.0, 1.0, 1.1, 0.9],
     [159, 1, 0.0, 0.0, 0.0, 0.0, 1.0, 1.0, 0.0, 345.0, 1.0, 1.1, 0.9],
     [160, 1, 0.0, 0.0, 0.0, 0.0, 1.0, 1.0, 0.0, 138.0, 1.0, 1.1, 0.9],
     [161, 1, 0.0, 0.0, 0.0, 0.0, 1.0, 1.0, 0.0, 69.0, 1.0, 1.1, 0.9],
     [162, 1, 71.133321, 10.304815, 0.0, 0.0, 1.0, 1.0, 0.0, 138.0, 1.0, 1.1, 0.9],
     [163, 1, 42.982584, 10.440698, 0.0, 0.0, 1.0, 1.0, 0.0, 69.0, 1.0, 1.1, 0.9],
     [164, 1, 27.968725, 7.4335923, 0.0, 0.0, 1.0, 1.0, 0.0, 69.0, 1.0, 1.1, 0.9],
     [165, 1, 0.0, 0.0, 0.0, 0.0, 1.0, 1.0, 0.0, 138.0, 1.0, 1.1, 0.9],
     [166, 1, 0.0, 0.0, 0.0, 0.0, 1.0, 1.0, 0.0, 69.0, 1.0, 1.1, 0.9],
     [167, 1, 136.34574, 82.948765, 0.0, 0.0, 1.0, 1.0, 0.0, 138.0, 1.0, 1.1, 0.9],
     [168, 1, 25.153536, 4.7858244, 0.0, 0.0, 1.0, 1.0, 0.0, 69.0, 1.0, 1.1, 0.9],
     [169, 1, 48.057962, 12.787909, 0.0, 0.0, 1.0, 1.0, 0.0, 69.0, 1.0, 1.1, 0.9],
     [170, 1, 0.0, 0.0, 0.0, 0.0, 1.0, 1.0, 0.0, 138.0, 1.0, 1.1, 0.9],
     [171, 1, 0.0, 0.0, 0.0, 0.0, 1.0, 1.0, 0.0, 69.0, 1.0, 1.1, 0.9],
     [172, 1, 64.99125, 15.347642, 0.0, 0.0, 1.0, 1.0, 0.0, 138.0, 1.0, 1.1, 0.9],
     [173, 1, 49.812493, 25.789267, 0.0, 0.0, 1.0, 1.0, 0.0, 69.0, 1.0, 1.1, 0.9],
     [174, 1, 0.0, 0.0, 0.0, 0.0, 1.0, 1.0, 0.0, 138.0, 1.0, 1.1, 0.9],
     [175, 1, 0.0, 0.0, 0.0, 0.0, 1.0, 1.0, 0.0, 69.0, 1.0, 1.1, 0.9],
     [176, 1, 67.457252, 7.9139351, 0.0, 0.0, 1.0, 1.0, 0.0, 138.0, 1.0, 1.1, 0.9],
     [177, 1, 32.640671, 8.9909054, 0.0, 0.0, 1.0, 1.0, 0.0, 69.0, 1.0, 1.1, 0.9],
     [178, 1, 21.471577, 4.7353379, 0.0, 0.0, 1.0, 1.0, 0.0, 69.0, 1.0, 1.1, 0.9],
     [179, 1, 43.099563, 5.0539475, 0.0, 0.0, 1.0, 1.0, 0.0, 69.0, 1.0, 1.1, 0.9],
     [180, 1, 29.859917, 4.3108127, 0.0, 0.0, 1.0, 1.0, 0.0, 69.0, 1.0, 1.1, 0.9],
     [181, 1, 0.0, 0.0, 0.0, 0.0, 1.0, 1.0, 0.0, 138.0, 1.0, 1.1, 0.9],
     [182, 1, 0.0, 0.0, 0.0, 0.0, 1.0, 1.0, 0.0, 69.0, 1.0, 1.1, 0.9],
     [183, 1, 74.524277, 17.467453, 0.0, 0.0, 1.0, 1.0, 0.0, 138.0, 1.0, 1.1, 0.9],
     [184, 1, 38.357391, 2.7000183, 0.0, 0.0, 1.0, 1.0, 0.0, 69.0, 1.0, 1.1, 0.9],
     [185, 1, 27.52708, 4.7391381, 0.0, 0.0, 1.0, 1.0, 0.0, 69.0, 1.0, 1.1, 0.9],
     [186, 1, 35.411356, 8.3667711, 0.0, 0.0, 1.0, 1.0, 0.0, 69.0, 1.0, 1.1, 0.9],
     [187, 1, 33.45286, 10.163847, 0.0, 0.0, 1.0, 1.0, 0.0, 69.0, 1.0, 1.1, 0.9],
     [188, 1, 0.0, 0.0, 0.0, 0.0, 1.0, 1.0, 0.0, 138.0, 1.0, 1.1, 0.9],
     [189, 1, 0.0, 0.0, 0.0, 0.0, 1.0, 1.0, 0.0, 69.0, 1.0, 1.1, 0.9],
     [190, 1, 54.302808, 12.182942, 0.0, 0.0, 1.0, 1.0, 0.0, 138.0, 1.0, 1.1, 0.9],
     [191, 1, 0.0, 0.0, 0.0, 0.0, 1.0, 1.0, 0.0, 138.0, 1.0, 1.1, 0.9],
     [192, 1, 50.603533, 21.904329, 0.0, 0.0, 1.0, 1.0, 0.0, 69.0, 1.0, 1.1, 0.9],
     [193, 1, 0.0, 0.0, 0.0, 0.0, 1.0, 1.0, 0.0, 138.0, 1.0, 1.1, 0.9],
     [194, 1, 0.0, 0.0, 0.0, 0.0, 1.0, 1.0, 0.0, 138.0, 1.0, 1.1, 0.9],
     [195, 1, 0.0, 0.0, 0.0, 0.0, 1.0, 1.0, 0.0, 69.0, 1.0, 1.1, 0.9],
     [196, 1, 46.960527, 7.8248051, 0.0, 0.0, 1.0, 1.0, 0.0, 138.0, 1.0, 1.1, 0.9],
     [197, 1, 39.102226, 8.7138343, 0.0, 0.0, 1.0, 1.0, 0.0, 69.0, 1.0, 1.1, 0.9],
     [198, 1, 0.0, 0.0, 0.0, 0.0, 1.0, 1.0, 0.0, 69.0, 1.0, 1.1, 0.9],
     [199, 1, 28.057407, 3.7781352, 0.0, 0.0, 1.0, 1.0, 0.0, 69.0, 1.0, 1.1, 0.9],
     [200, 1, 35.117549, 13.890588, 0.0, 0.0, 1.0, 1.0, 0.0, 69.0, 1.0, 1.1, 0.9],
...
	])


## generator data
# 0bus, 1Pg, 2Qg, 3Qmax, 4Qmin, 5Vg, 6mBase, 7status, 8Pmax, 9Pmin, 10Pc1, 11Pc2,
# 12Qc1min, 13Qc1max, 14Qc2min, 15Qc2max, 16ramp_agc, 17ramp_10, 18ramp_30, 19ramp_q, apf
	ppc["gen"] = array([
     [511, 199.3925, 57.0965, 339.0482296838895, -61.202020316110705, 1.0, 286.92, 1.0, 327.9644218331203, 0.0],
     [512, 211.815, 57.0965, 344.8463199427185, -55.40393005728184, 1.0, 286.92, 1.0, 374.23846039774253, 0.0],
     [513, 202.3985, 57.0965, 342.8898733235395, -57.360376676459936, 1.0, 286.92, 1.0, 317.4924629388423, 0.0],
     [514, 203.4165, 57.0965, 346.36281682444627, -53.88743317555384, 1.0, 286.92, 1.0, 400.66113865746166, 0.0],
     [515, 215.024, 57.0965, 343.81451051666926, -56.43573948333105, 1.0, 286.92, 1.0, 295.85525373955215, 0.0],
     [516, 176.202, 57.0965, 339.2541016299853, -60.996148370014765, 1.0, 286.92, 1.0, 332.6788865405232, 0.0],
     [518, 17.532, 5.273, 32.5990801502919, -4.368419849708133, 1.0, 26.5, 1.0, 85.36448991729397, 0.0],
     [522, 605.927, 117.06, 694.9330003770979, -133.89949962290285, 1.0, 818.6, 1.0, 1145.7641319362094, 0.0],
     [523, 455.499, 117.06, 702.1598630803278, -126.67263691967139, 1.0, 818.6, 1.0, 1145.4821492368478, 0.0],
     [530, 147.451, 48.715, 303.67147980553665, -37.82452019446339, 1.0, 244.8, 1.0, 260.8361311933698, 0.0],
     [531, 174.0605, 48.715, 314.405897901803, -27.09010209819722, 1.0, 244.8, 1.0, 219.0252921405865, 0.0],
     [532, 168.6685, 48.715, 305.5192592191393, -35.97674078086092, 1.0, 244.8, 1.0, 248.95792767180285, 0.0],
     [533, 163.709, 48.715, 302.83072130899063, -38.66527869100942, 1.0, 244.8, 1.0, 240.03798288975827, 0.0],
     [536, 276.28, 69.144, 475.077682381394, -56.768317618605664, 1.0, 402.0, 1.0, 603.0, 0.0],
     [537, 286.569, 69.144, 489.2680013949531, -42.57799860504636, 1.0, 402.0, 1.0, 603.0, 0.0],
     [539, 9.5495, 2.524, 16.060067539983525, -3.343932460016494, 1.0, 3.67, 1.0, 88.008, 0.0],
     [543, 111.8905, 34.573, 220.21883284544563, -22.137667154554194, 1.0, 173.73, 1.0, 241.20682215102906, 0.0],
     [544, 127.1945, 34.573, 235.4379475774182, -6.918552422581897, 1.0, 173.73, 1.0, 237.1166980953842, 0.0],
     [546, 116.4245, 34.573, 245.96864135049807, 3.6121413504979785, 1.0, 173.73, 1.0, 232.97479132067713, 0.0],
     [547, 111.503, 34.573, 218.83391232407072, -23.522587675929188, 1.0, 173.73, 1.0, 241.46335581229397, 0.0],
     [551, 624.0895, 154.44, 926.6982954115626, -166.80170458843787, 1.0, 1080.0, 1.0, 1609.3412656150854, 0.0],
     [552, 626.361, 154.44, 911.9644416543067, -181.5355583456925, 1.0, 1080.0, 1.0, 1511.7761912265648, 0.0],
     [554, 226.69, 68.06, 481.0634473722109, 3.973447372211524, 1.0, 68.4, 1.0, 1553.0025315764358, 0.0],
     [558, 75.428, 27.223, 164.92032564644632, -25.915674353553783, 1.0, 136.8, 1.0, 191.13637370102845, 0.0],
     [561, 82.724, 27.223, 185.44558322624783, -5.390416773752321, 1.0, 136.8, 1.0, 172.80953072448605, 0.0],
     [562, 78.8815, 27.223, 177.70718586533565, -13.128814134664204, 1.0, 136.8, 1.0, 188.99337677663206, 0.0],
     [563, 86.6705, 27.223, 163.70261897624522, -27.133381023754765, 1.0, 136.8, 1.0, 191.24140487775574, 0.0],
     [567, 461.7685, 141.39, 853.2648541438804, -137.88264585611964, 1.0, 710.5, 1.0, 1065.75, 0.0],
     [568, 419.9705, 141.39, 874.555611706819, -116.59188829318015, 1.0, 710.5, 1.0, 563.5327891685201, 0.0],
     [569, 523.346, 141.39, 852.021919481968, -139.12558051803126, 1.0, 710.5, 1.0, 1065.75, 0.0],
     [570, 393.325, 141.39, 854.183933758331, -136.96356624166938, 1.0, 710.5, 1.0, 546.5235500896626, 0.0],
     [575, 85.8, 21.328, 138.19913637810498, -25.852863621895096, 1.0, 124.0, 1.0, 186.0, 0.0],
     [576, 87.0925, 21.328, 139.199611277907, -24.852388722093124, 1.0, 124.0, 1.0, 186.0, 0.0],
     [577, 68.35, 21.328, 143.68330893876538, -20.36869106123482, 1.0, 124.0, 1.0, 186.0, 0.0],
     [578, 70.853, 21.328, 143.52294999405638, -20.52905000594358, 1.0, 124.0, 1.0, 186.0, 0.0],
     [581, 13.283, 3.6265, 25.612149808265855, -2.281100191734158, 1.0, 21.08, 1.0, 126.49799999999999, 0.0],
     [582, 40.0245, 10.8795, 66.13125529092378, -17.54849470907633, 1.0, 21.08, 1.0, 94.87349999999999, 0.0],
     [587, 119.022, 36.019, 220.6304459454161, -31.864554054584005, 1.0, 181.0, 1.0, 668.1248670854047, 0.0],
     [588, 123.0775, 36.019, 225.72757605597786, -26.76742394402229, 1.0, 181.0, 1.0, 229.56643220155865, 0.0],
     [590, 19.265, 6.248, 31.254283407999495, -12.548716592000487, 1.0, 15.7, 1.0, 237.4848439668205, 0.0],
     [594, 233.1585, 64.4265, 403.22336469079625, -48.40788530920382, 1.0, 323.75, 1.0, 312.82917872552116, 0.0],
     [596, 235.478, 64.4265, 397.08498310526295, -54.54626689473645, 1.0, 323.75, 1.0, 326.59678352883924, 0.0],
     [597, 185.277, 64.4265, 392.3089559813958, -59.32229401860391, 1.0, 323.75, 1.0, 338.35045732648473, 0.0],
     [1212, 91.7425, 28.357, 177.12308020501538, -21.664419794984866, 1.0, 142.5, 1.0, 456.46791079188813, 0.0],
     [1214, 86.6565, 28.357, 171.25001002931418, -27.537489970685733, 1.0, 142.5, 1.0, 115.86175356463461, 0.0],
     [1216, 109.22149999999999, 34.626, 192.71505518605446, -50.014944813945434, 1.0, 87.0, 1.0, 1044.0, 0.0],
     [1219, 316.07449999999994, 86.895, 595.9640868548165, -72.40741314518249, 1.0, 84.2, 1.0, 6062.4, 0.0],
     [1227, 127.5005, 39.577, 220.21507994711484, -57.223420052885245, 1.0, 198.88, 1.0, 154.3703917816393, 0.0],
     [1228, 130.3675, 39.577, 220.48870300691678, -56.94979699308312, 1.0, 198.88, 1.0, 298.32, 0.0],
     [1229, 135.5645, 39.577, 221.00774322170872, -56.43075677829115, 1.0, 198.88, 1.0, 158.33560993455853, 0.0],
     [1237, 129.6835, 40.934, 288.7553310010943, 1.8038310010945082, 1.0, 205.7, 1.0, 308.54999999999995, 0.0],
     [1243, 145.9405, 39.681, 199.9842374039343, -78.17876259606592, 1.0, 199.4, 1.0, 299.1, 0.0],
     [1244, 123.285, 39.681, 199.994924485921, -78.1680755140787, 1.0, 199.4, 1.0, 183.19338710444873, 0.0],
     [1251, 99.6825, 35.9, 216.09533155168424, -35.56266844831587, 1.0, 180.4, 1.0, 150.6198960440615, 0.0],
     [1252, 104.498, 35.9, 210.41385403916402, -41.24414596083597, 1.0, 180.4, 1.0, 270.6, 0.0],
     [1256, 210.1575, 66.811, 403.4172362139405, -64.92926378606008, 1.0, 335.73, 1.0, 503.59950000000003, 0.0],
     [1258, 195.9485, 66.811, 390.23285465772665, -78.1136453422732, 1.0, 335.73, 1.0, 503.59950000000003, 0.0],
     [1259, 203.09, 66.811, 390.2416892191852, -78.10481078081494, 1.0, 335.73, 1.0, 503.59950000000003, 0.0],
     [1261, 208.251, 66.811, 393.46413711321986, -74.88236288678014, 1.0, 335.73, 1.0, 503.59950000000003, 0.0],
     [1271, 132.243, 36.218, 205.0633013649585, -48.82669863504173, 1.0, 182.0, 1.0, 273.0, 0.0],
     [1272, 130.3275, 36.218, 200.4435428798979, -53.44645712010225, 1.0, 182.0, 1.0, 273.0, 0.0],
     [1273, 111.3065, 36.218, 206.05636180570986, -47.83363819428999, 1.0, 182.0, 1.0, 167.8360919376156, 0.0],
     [1274, 124.9885, 36.218, 204.68088356478515, -49.209116435214696, 1.0, 182.0, 1.0, 273.0, 0.0],
     [1281, 144.997, 49.869, 296.4552151842878, -53.13178481571181, 1.0, 250.6, 1.0, 214.99254044890986, 0.0],
     [1282, 170.8875, 49.869, 303.3312320667748, -46.255767933225485, 1.0, 250.6, 1.0, 375.9, 0.0],
     [1284, 186.507, 49.869, 305.5162811506337, -44.07071884936613, 1.0, 250.6, 1.0, 375.9, 0.0],
     [1285, 155.499, 49.869, 306.8723019834003, -42.714698016599925, 1.0, 250.6, 1.0, 195.0374523002525, 0.0],
     [1291, 142.397, 42.732, 259.9984874230486, -39.55301257695163, 1.0, 214.73, 1.0, 322.09950000000003, 0.0],
     [1295, 224.2795, 64.4265, 386.2461856265948, -65.3850643734049, 1.0, 323.75, 1.0, 485.625, 0.0],
     [1296, 241.37, 64.4265, 382.4877711401782, -69.1434788598213, 1.0, 323.75, 1.0, 485.625, 0.0],
     [1297, 222.095, 64.4265, 386.1767457637334, -65.4545042362674, 1.0, 323.75, 1.0, 485.625, 0.0],
     [1298, 230.6285, 64.4265, 380.67243448653414, -70.95881551346562, 1.0, 323.75, 1.0, 485.625, 0.0],
     [1300, 185.8235, 55.64, 395.65301148916285, 5.611011489162678, 1.0, 69.9, 1.0, 2364.508712946948, 0.0],
     [1303, 296.1355, 91.315, 627.5896240613192, -12.530875938680452, 1.0, 229.43, 1.0, 349.26795942402566, 0.0],
     [1309, 111.237, 34.984, 207.26159211935993, -37.97940788064021, 1.0, 175.8, 1.0, 138.92711873218377, 0.0],
     [1310, 125.8785, 34.984, 206.26039499997015, -38.98060500002991, 1.0, 175.8, 1.0, 263.70000000000005, 0.0],
     [1313, 16.0865, 4.139, 24.244588176794757, -7.592911823205221, 1.0, 8.33, 1.0, 288.792, 0.0],
     [1318, 122.399, 39.8, 233.76582488797567, -45.234175112024154, 1.0, 200.0, 1.0, 168.31843121202175, 0.0],
     [1319, 140.125, 39.8, 234.53668737258994, -44.46331262740961, 1.0, 200.0, 1.0, 300.0, 0.0],
     [1320, 131.923, 39.8, 234.36690452999045, -44.63309547000932, 1.0, 200.0, 1.0, 157.5149317723855, 0.0],
     [1325, 564.028, 160.734, 1006.939036631275, -229.4044633687251, 1.0, 934.5, 1.0, 1401.75, 0.0],
     [1326, 658.5845, 160.734, 1016.9747041159806, -219.36879588402076, 1.0, 934.5, 1.0, 1401.75, 0.0],
     [1328, 139.03199999999998, 39.01, 251.2941986134065, -48.75680138659354, 1.0, 56.7, 1.0, 1360.8000000000002, 0.0],
     [1330, 160.44150000000002, 51.342, 303.9371652069516, -55.97283479304873, 1.0, 86.0, 1.0, 217.2591193946082, 0.0],
     [1332, 21.7845, 0.0, 0.0, 0.0, 1.0, 3.5, 1.0, 686.3880215325739, 0.0],
     [1336, 88.498, 27.6705, 164.6332385335204, -29.341511466479638, 1.0, 139.05, 1.0, 208.57500000000002, 0.0],
     [1337, 101.1105, 27.6705, 164.72794771554663, -29.246802284453395, 1.0, 139.05, 1.0, 208.57500000000002, 0.0],
     [1343, 31.949, 9.313, 55.85508693692964, -9.430913063070344, 1.0, 46.8, 1.0, 181.56851813988214, 0.0],
     [1350, 9.147, 0.0, 0.0, 0.0, 1.0, 5.1, 1.0, 227.2196166340768, 0.0],
     [1360, 287.578, 81.2085, 479.20332919308646, -90.07142080691416, 1.0, 408.08, 1.0, 612.1245, 0.0],
     [1362, 275.2035, 81.2085, 479.14404134963297, -90.13070865036714, 1.0, 408.08, 1.0, 612.1245, 0.0],
     [1364, 279.582, 81.2085, 487.58140458154173, -81.69334541845869, 1.0, 408.08, 1.0, 612.1245, 0.0],
     [1365, 245.173, 81.2085, 479.0931533725466, -90.1815966274534, 1.0, 408.08, 1.0, 612.1245, 0.0],
     [1377, 222.0385, 75.0395, 437.86821855173685, -88.1615314482633, 1.0, 377.08, 1.0, 298.6732127840694, 0.0],
     [1378, 242.1685, 75.0395, 436.4959943456654, -89.53375565433447, 1.0, 377.08, 1.0, 565.6245, 0.0],
     [1379, 266.0535, 75.0395, 435.7425141871511, -90.28723581284915, 1.0, 377.08, 1.0, 565.6245, 0.0],
     [1380, 237.232, 75.0395, 435.46668979454233, -90.56306020545773, 1.0, 377.08, 1.0, 565.6245, 0.0],
     [1382, 217.287, 75.0395, 435.56434403736824, -90.46540596263193, 1.0, 377.08, 1.0, 565.6245, 0.0],
     [1390, 182.747, 48.739, 290.89121467065104, -50.77128532934924, 1.0, 244.92, 1.0, 367.38, 0.0],
     [1391, 180.706, 48.739, 288.21213566352225, -53.450364336476966, 1.0, 244.92, 1.0, 367.38, 0.0],
     [1392, 152.2195, 48.739, 288.19590031454265, -53.466599685457325, 1.0, 244.92, 1.0, 367.38, 0.0],
     [1393, 147.2585, 48.739, 289.3256199822481, -52.336880017751724, 1.0, 244.92, 1.0, 367.38, 0.0],
     [1394, 154.943, 48.739, 289.8364946763121, -51.82600532368734, 1.0, 244.92, 1.0, 202.64726149983298, 0.0],
     [1398, 115.1155, 38.9375, 226.42557253483787, -46.52867746516198, 1.0, 195.67, 1.0, 155.063068639316, 0.0],
     [1400, 116.332, 38.9375, 230.2806150402937, -42.6736349597064, 1.0, 195.67, 1.0, 293.5005, 0.0],
     [1404, 583.8815, 148.4875, 925.6161687153959, -216.53108128460457, 1.0, 863.3, 1.0, 1294.9499999999998, 0.0],
     [1405, 549.8575, 148.4875, 939.4645315943694, -202.68271840563114, 1.0, 863.3, 1.0, 1294.9499999999998, 0.0],
     [1407, 31.706, 9.5805, 78.6464860045371, 4.9567360045370314, 1.0, 55.7, 1.0, 668.4000000000001, 0.0],
     [1410, 34.979, 12.338, 75.2525231531856, -11.237476846814339, 1.0, 62.0, 1.0, 229.38444418468438, 0.0],
     [1414, 61.5115, 17.154, 101.637135125857, -18.611864874143063, 1.0, 86.2, 1.0, 517.2, 0.0],
     [1417, 91.8925, 28.062, 174.56052791129912, -41.2864720887011, 1.0, 163.15, 1.0, 244.72500000000002, 0.0],
     [1418, 97.9985, 28.062, 178.14199490426887, -37.705005095730975, 1.0, 163.15, 1.0, 244.72500000000002, 0.0],
     [1423, 331.527, 110.684, 692.6146863441928, -83.28431365580659, 1.0, 556.2, 1.0, 834.3000000000001, 0.0],
     [1426, 90.9045, 24.935, 129.73042143176585, -45.06307856823406, 1.0, 62.65, 1.0, 2382.752107115113, 0.0],
     [1429, 72.70100000000001, 22.168, 132.24205985870245, -23.160940141297523, 1.0, 55.7, 1.0, 543.9165445792519, 0.0],
     [1432, 121.2235, 33.1335, 197.52848334450465, -34.741266655495174, 1.0, 166.5, 1.0, 135.76388306106116, 0.0],
     [1433, 113.4765, 33.1335, 198.6225162347255, -33.64723376527496, 1.0, 166.5, 1.0, 126.58275531768996, 0.0],
     [1439, 92.842, 26.699, 161.62099860448154, -25.543001395518687, 1.0, 134.17, 1.0, 446.3008926418809, 0.0],
     [1441, 84.17, 26.699, 161.27063644946284, -25.893363550536954, 1.0, 134.17, 1.0, 460.73652195760917, 0.0],
     [1442, 88.2115, 26.699, 160.70591844327143, -26.45808155672865, 1.0, 134.17, 1.0, 423.33190630884445, 0.0],
     [1443, 74.7535, 26.699, 163.10716513255775, -24.056834867442213, 1.0, 134.17, 1.0, 436.0162565407884, 0.0],
     [1445, 160.353, 51.16199999999999, 300.5248473842017, -58.12965261579828, 1.0, 85.7, 1.0, 942.3259072222895, 0.0],
     [1454, 137.1065, 40.397, 244.7663352019452, -38.41866479805496, 1.0, 203.0, 1.0, 164.9082577348013, 0.0],
     [1455, 118.7315, 40.397, 247.60995227865305, -35.57504772134682, 1.0, 203.0, 1.0, 164.59732419664783, 0.0],
     [1457, 28.3285, 9.373, 137.1248198623667, 17.478819862366787, 1.0, 47.1, 1.0, 565.6012054020609, 0.0],
     [1458, 60.42700000000001, 18.746, 114.56031867867233, -16.84868132132781, 1.0, 47.1, 1.0, 995.4891076055094, 0.0],
     [1461, 160.055, 49.352, 342.12680941073694, -3.833190589263154, 1.0, 62.0, 1.0, 744.0, 0.0],
     [1466, 84.1435, 22.8355, 121.06344127926874, -39.012808720731286, 1.0, 114.75, 1.0, 112.51971755156264, 0.0],
     [1474, 105.2305, 36.715, 219.94868318711167, -37.42881681288836, 1.0, 184.5, 1.0, 149.24268564763614, 0.0],
     [1858, 28.235, 9.373000000000001, 67.29232566976066, 1.5878256697606616, 1.0, 4.1, 1.0, 507.41566641731526, 0.0],
     [1861, 162.2015, 50.1555, 315.6424637779069, -70.14478622209295, 1.0, 291.6, 1.0, 437.40000000000003, 0.0],
     [1868, 446.8485, 105.0365, 622.1120911844175, -185.8111588155821, 1.0, 610.67, 1.0, 916.0124999999999, 0.0],
     [1870, 341.249, 105.0365, 628.6809516936994, -179.24229830630065, 1.0, 610.67, 1.0, 916.0124999999999, 0.0],
     [1873, 62.361999999999995, 16.856, 106.97900270594337, -22.674997294056645, 1.0, 49.0, 1.0, 588.0, 0.0],
     [1875, 159.1755, 42.726, 299.4004744091208, -29.234525590879144, 1.0, 62.1, 1.0, 806.1146467316823, 0.0],
     [1877, 170.1925, 44.358, 303.9909068380274, -37.20809316197284, 1.0, 85.97, 1.0, 2004.5040039815078, 0.0],
     [1880, 36.5695, 10.1825, 71.90574428884251, -6.414505711157439, 1.0, 59.2, 1.0, 355.20000000000005, 0.0],
     [1883, 116.476, 29.24, 184.12261832948747, -40.78738167051293, 1.0, 170.0, 1.0, 255.0, 0.0],
     [1884, 125.0495, 29.24, 183.35441209515088, -41.555587904849205, 1.0, 170.0, 1.0, 255.0, 0.0],
     [1888, 106.4425, 36.815, 238.074554883781, -20.00044511621904, 1.0, 185.0, 1.0, 175.25112394972686, 0.0],
     [1893, 16.93, 4.128, 73.402125668428, 16.486125668428, 1.0, 24.0, 1.0, 906.7952235706389, 0.0],
     [1897, 127.883, 37.89, 236.8907354439195, -28.717264556080423, 1.0, 190.4, 1.0, 163.80909899540612, 0.0],
     [1903, 211.7325, 48.809, 303.61829492265827, -71.81670507734148, 1.0, 283.77, 1.0, 425.66249999999997, 0.0],
     [1904, 164.758, 48.809, 303.54537469799607, -71.8896253020036, 1.0, 283.77, 1.0, 425.66249999999997, 0.0],
     [1905, 184.677, 48.809, 303.81534825027813, -71.61965174972188, 1.0, 283.77, 1.0, 425.66249999999997, 0.0],
     [1908, 55.278, 17.114, 116.93281514177727, -3.0371848582227656, 1.0, 86.0, 1.0, 516.0, 0.0],
     [1912, 93.8145, 27.3125, 160.4238011822106, -31.039948817789274, 1.0, 137.25, 1.0, 417.16463351783005, 0.0],
     [1913, 82.839, 27.3125, 159.9131480186712, -31.55060198132869, 1.0, 137.25, 1.0, 435.3872702882253, 0.0],
     [1914, 3.104, 0.935, 6.111694893049515, -0.4448051069504855, 1.0, 4.7, 1.0, 210.0322605764312, 0.0],
     [1917, 13.866999999999999, 0.0, 0.0, 0.0, 1.0, 10.0, 1.0, 544.8947339011942, 0.0],
     [1919, 19.812, 5.97, 45.402547598405945, 3.5525475984059334, 1.0, 30.0, 1.0, 495.1823265784721, 0.0],
     [1921, 31.1145, 7.1895, 66.68637901823949, 11.383629018239535, 1.0, 41.8, 1.0, 294.00295432946655, 0.0],
     [1923, 14.855, 3.792, 23.07243262440802, 1.0224326244080224, 1.0, 4.07, 1.0, 271.608, 0.0],
     [1925, 42.352, 10.5265, 61.01981759408983, -36.74493240591025, 1.0, 61.2, 1.0, 367.20000000000005, 0.0],
     [1927, 103.3225, 28.9155, 175.57593983373377, -27.11981016626636, 1.0, 48.43, 1.0, 485.1684399643417, 0.0],
     [1929, 49.707, 14.925, 97.54555347691921, -7.079446523080819, 1.0, 75.0, 1.0, 450.0, 0.0],
     [1931, 48.71, 16.248, 99.34239471407524, -14.561605285924735, 1.0, 40.83, 1.0, 401.3138711630503, 0.0],
     [1933, 28.456, 8.902, 42.971467461146865, -30.601282538853056, 1.0, 44.73, 1.0, 2147.1839999999997, 0.0],
     [1934, 24.665, 8.902, 68.29488260989741, 5.893382609897454, 1.0, 44.73, 1.0, 353.3095511223104, 0.0],
     [1936, 78.356, 24.358, 15.640758793038401, -277.3812412069615, 1.0, 61.2, 1.0, 1976.1768915530624, 0.0],
     [1939, 94.55099999999999, 29.253, 187.0869061356725, -17.978093864327775, 1.0, 49.0, 1.0, 882.0, 0.0],
     [1942, 180.708, 51.17, 320.2883127328815, -73.30418726711818, 1.0, 297.5, 1.0, 340.99408834331814, 0.0],
     [1946, 111.378, 36.815, 228.37870731137915, -29.6962926886209, 1.0, 185.0, 1.0, 277.5, 0.0],
     [1950, 148.8165, 39.581, 229.24219877051513, -48.22330122948506, 1.0, 198.9, 1.0, 298.35, 0.0],
     [1952, 95.9425, 23.3235, 160.63394788908903, -18.760802110910767, 1.0, 45.2, 1.0, 516.1965250916376, 0.0],
     [1956, 111.7735, 39.674, 231.72699116473117, -46.391008835268856, 1.0, 199.37, 1.0, 190.72918053550762, 0.0],
     [1957, 139.0445, 39.674, 230.9165279403455, -47.201472059654, 1.0, 199.37, 1.0, 183.35547685932653, 0.0],
     [1958, 110.6735, 39.674, 232.52903567995816, -45.588964320041846, 1.0, 199.37, 1.0, 209.83107429031716, 0.0],
     [1962, 116.245, 41.1065, 234.19832781583776, -53.96142218416223, 1.0, 206.57, 1.0, 160.44537298044798, 0.0],
     [1963, 145.303, 41.1065, 235.0457003827544, -53.1140496172457, 1.0, 206.57, 1.0, 309.8505, 0.0],
     [1964, 146.3115, 41.1065, 235.30426053535118, -52.85548946464842, 1.0, 206.57, 1.0, 309.8505, 0.0],
     [1968, 71.853, 24.5765, 142.970375637943, -60.159624362057, 1.0, 123.5, 1.0, 385.60349885992673, 0.0],
     [1976, 324.667, 112.176, 659.8889644364448, -126.47253556355562, 1.0, 563.7, 1.0, 845.5500000000001, 0.0],
     [1979, 86.1155, 22.885, 138.3902322656855, -22.0347677343143, 1.0, 115.0, 1.0, 690.0, 0.0],
     [1981, 84.1415, 22.885, 135.62924553229664, -24.795754467703404, 1.0, 115.0, 1.0, 690.0, 0.0],
     [1983, 89.1885, 29.073, 40.31461708425911, -309.45688291574106, 1.0, 73.05, 1.0, 1753.1999999999998, 0.0],
     [1993, 280.214, 78.864, 461.95699138219777, -90.88150861780277, 1.0, 396.3, 1.0, 594.45, 0.0],
     [1996, 287.4955, 78.864, 472.6419120605365, -80.19658793946243, 1.0, 396.3, 1.0, 594.45, 0.0],
	])


## branch data
# 0fbus, 1tbus, 2r, 3x, 4b, 5rateA, 6rateB, 7rateC, 8ratio, 9angle, 10status, 11angmin, 12angmax
	ppc["branch"] = array([
     [1, 3, 0.00023182, 0.00102493, 0.0, 99999.0, 99999.0, 99999.0, 0.0, 0.0, 1.0, -360.0, 360.0],
     [1, 28, 0.00413857, 0.0270728, 0.00746341, 219.62, 219.62, 219.62, 0.0, 0.0, 1.0, -360.0, 360.0],
     [1, 174, 0.00529188, 0.0209981, 0.0166533, 241.75, 241.75, 241.75, 0.0, 0.0, 1.0, -360.0, 360.0],
     [1, 174, 0.00529188, 0.0209981, 0.0166533, 241.75, 241.75, 241.75, 0.0, 0.0, 1.0, -360.0, 360.0],
     [1, 247, 0.00712647, 0.0357571, 0.00985329, 265.68, 265.68, 265.68, 0.0, 0.0, 1.0, -360.0, 360.0],
     [1, 248, 0.00369663, 0.021138, 0.0100986, 243.83, 243.83, 243.83, 0.0, 0.0, 1.0, -360.0, 360.0],
     [2, 23, 0.0104592, 0.0332497, 0.00196885, 79.04, 79.04, 79.04, 0.0, 0.0, 1.0, -360.0, 360.0],
     [2, 23, 0.0104592, 0.0332497, 0.00196885, 79.04, 79.04, 79.04, 0.0, 0.0, 1.0, -360.0, 360.0],
     [4, 128, 0.0132902, 0.0268195, 0.00578327, 64.44, 64.44, 64.44, 0.0, 0.0, 1.0, -360.0, 360.0],
     [4, 164, 0.0219322, 0.0591199, 0.0121884, 52.0, 52.0, 52.0, 0.0, 0.0, 1.0, -360.0, 360.0],
     [5, 4, 0.0108814, 0.0309317, 0.0010461, 80.95, 80.95, 80.95, 0.0, 0.0, 1.0, -360.0, 360.0],
     [5, 10, 0.00934009, 0.0255526, 0.00609131, 108.59, 108.59, 108.59, 0.0, 0.0, 1.0, -360.0, 360.0],
     [6, 13, 0.0134592, 0.0297145, 0.0015211, 65.19, 65.19, 65.19, 0.0, 0.0, 1.0, -360.0, 360.0],
     [6, 13, 0.0134592, 0.0297145, 0.0015211, 65.19, 65.19, 65.19, 0.0, 0.0, 1.0, -360.0, 360.0],
     [6, 43, 0.0177663, 0.0495402, 0.00459009, 81.61, 81.61, 81.61, 0.0, 0.0, 1.0, -360.0, 360.0],
     [6, 43, 0.0177663, 0.0495402, 0.00459009, 81.61, 81.61, 81.61, 0.0, 0.0, 1.0, -360.0, 360.0],
     [6, 43, 0.0177663, 0.0495402, 0.00459009, 81.61, 81.61, 81.61, 0.0, 0.0, 1.0, -360.0, 360.0],
     [7, 86, 0.00434889, 0.0146316, 0.0344193, 256.34, 256.34, 256.34, 0.0, 0.0, 1.0, -360.0, 360.0],
     [7, 86, 0.00434889, 0.0146316, 0.0344193, 256.34, 256.34, 256.34, 0.0, 0.0, 1.0, -360.0, 360.0],
     [7, 86, 0.00434889, 0.0146316, 0.0344193, 256.34, 256.34, 256.34, 0.0, 0.0, 1.0, -360.0, 360.0],
     [8, 214, 0.0177395, 0.0479832, 0.00111804, 105.16, 105.16, 105.16, 0.0, 0.0, 1.0, -360.0, 360.0],
     [9, 7, 0.00214021, 0.0150334, 0.0121318, 319.17, 319.17, 319.17, 0.0, 0.0, 1.0, -360.0, 360.0],
     [9, 11, 0.000211449, 0.00119004, 0.0, 99999.0, 99999.0, 99999.0, 0.0, 0.0, 1.0, -360.0, 360.0],
     [10, 6, 0.0170262, 0.0421583, 0.00119287, 86.29, 86.29, 86.29, 0.0, 0.0, 1.0, -360.0, 360.0],
     [12, 14, 0.000238768, 0.00116074, 0.0, 99999.0, 99999.0, 99999.0, 0.0, 0.0, 1.0, -360.0, 360.0],
     [13, 8, 0.0165507, 0.0426667, 0.00366785, 133.11, 133.11, 133.11, 0.0, 0.0, 1.0, -360.0, 360.0],
     [13, 17, 0.0320514, 0.0754904, 0.00235805, 82.53, 82.53, 82.53, 0.0, 0.0, 1.0, -360.0, 360.0],
     [13, 187, 0.0069238, 0.0171061, 0.00801142, 79.4, 79.4, 79.4, 0.0, 0.0, 1.0, -360.0, 360.0],
     [14, 9, 0.00364564, 0.0218068, 0.0060302, 172.04, 172.04, 172.04, 0.0, 0.0, 1.0, -360.0, 360.0],
     [15, 151, 0.00171507, 0.0115251, 0.0086048, 286.2, 286.2, 286.2, 0.0, 0.0, 1.0, -360.0, 360.0],
     [15, 211, 0.00192474, 0.0105067, 0.00425216, 280.32, 280.32, 280.32, 0.0, 0.0, 1.0, -360.0, 360.0],
     [15, 232, 0.0046, 0.029799, 0.0212613, 280.54, 280.54, 280.54, 0.0, 0.0, 1.0, -360.0, 360.0],
     [15, 232, 0.0046, 0.029799, 0.0212613, 321.13, 321.13, 321.13, 0.0, 0.0, 1.0, -360.0, 360.0],
     [16, 21, 0.011558, 0.0357297, 0.00234347, 105.45, 105.45, 105.45, 0.0, 0.0, 1.0, -360.0, 360.0],
     [16, 35, 0.00813416, 0.0195601, 0.00218755, 92.42, 92.42, 92.42, 0.0, 0.0, 1.0, -360.0, 360.0],
     [16, 37, 0.0129734, 0.0401236, 0.000641011, 73.63, 73.63, 73.63, 0.0, 0.0, 1.0, -360.0, 360.0],
     [17, 43, 0.0167472, 0.042412, 0.00168994, 99.4, 99.4, 99.4, 0.0, 0.0, 1.0, -360.0, 360.0],
     [18, 19, 0.000249168, 0.00107953, 0.0, 99999.0, 99999.0, 99999.0, 0.0, 0.0, 1.0, -360.0, 360.0],
     [18, 187, 0.018127, 0.0528191, 0.00213896, 73.01, 73.01, 73.01, 0.0, 0.0, 1.0, -360.0, 360.0],
     [18, 187, 0.018127, 0.0528191, 0.00213896, 82.62, 82.62, 82.62, 0.0, 0.0, 1.0, -360.0, 360.0],
     [20, 22, 0.000219564, 0.00118149, 0.0, 99999.0, 99999.0, 99999.0, 0.0, 0.0, 1.0, -360.0, 360.0],
     [21, 38, 0.0228097, 0.052298, 0.00200842, 68.0, 68.0, 68.0, 0.0, 0.0, 1.0, -360.0, 360.0],
     [21, 38, 0.0228097, 0.052298, 0.00200842, 68.0, 68.0, 68.0, 0.0, 0.0, 1.0, -360.0, 360.0],
     [22, 34, 0.00459707, 0.0237513, 0.0317594, 215.75, 215.75, 215.75, 0.0, 0.0, 1.0, -360.0, 360.0],
     [22, 86, 0.0024419, 0.0144345, 0.00822082, 267.98, 267.98, 267.98, 0.0, 0.0, 1.0, -360.0, 360.0],
     [22, 215, 0.00318566, 0.01486, 0.0134473, 258.04, 258.04, 258.04, 0.0, 0.0, 1.0, -360.0, 360.0],
     [22, 215, 0.00318566, 0.01486, 0.0134473, 258.04, 258.04, 258.04, 0.0, 0.0, 1.0, -360.0, 360.0],
     [22, 215, 0.00318566, 0.01486, 0.0134473, 258.04, 258.04, 258.04, 0.0, 0.0, 1.0, -360.0, 360.0],
     [22, 548, 0.00620426, 0.0329366, 0.0176561, 258.61, 258.61, 258.61, 0.0, 0.0, 1.0, -360.0, 360.0],
     [22, 548, 0.00620426, 0.0329366, 0.0176561, 258.61, 258.61, 258.61, 0.0, 0.0, 1.0, -360.0, 360.0],
     [22, 548, 0.00620426, 0.0329366, 0.0176561, 258.61, 258.61, 258.61, 0.0, 0.0, 1.0, -360.0, 360.0],
     [23, 177, 0.0167668, 0.0454559, 0.00130041, 75.07, 75.07, 75.07, 0.0, 0.0, 1.0, -360.0, 360.0],
     [24, 16, 0.0118471, 0.0318563, 0.00208615, 99.33, 99.33, 99.33, 0.0, 0.0, 1.0, -360.0, 360.0],
     [24, 25, 0.000264528, 0.00110156, 0.0, 99999.0, 99999.0, 99999.0, 0.0, 0.0, 1.0, -360.0, 360.0],
     [24, 41, 0.015854, 0.041633, 0.00114618, 67.07, 67.07, 67.07, 0.0, 0.0, 1.0, -360.0, 360.0],
     [24, 41, 0.015854, 0.041633, 0.00114618, 67.07, 67.07, 67.07, 0.0, 0.0, 1.0, -360.0, 360.0],
     [26, 28, 0.000288654, 0.00112215, 0.0, 99999.0, 99999.0, 99999.0, 0.0, 0.0, 1.0, -360.0, 360.0],
     [27, 23, 0.0127749, 0.0299585, 0.00159547, 59.21, 59.21, 59.21, 0.0, 0.0, 1.0, -360.0, 360.0],
     [27, 177, 0.0148095, 0.0384174, 0.00194579, 76.41, 76.41, 76.41, 0.0, 0.0, 1.0, -360.0, 360.0],
     [27, 219, 0.0146725, 0.0356523, 0.000881023, 55.36, 55.36, 55.36, 0.0, 0.0, 1.0, -360.0, 360.0],
     [28, 165, 0.00356549, 0.0232361, 0.00589297, 350.0, 350.0, 350.0, 0.0, 0.0, 1.0, -360.0, 360.0],
     [28, 174, 0.00146485, 0.0101278, 0.00457715, 241.31, 241.31, 241.31, 0.0, 0.0, 1.0, -360.0, 360.0],
     [29, 252, 0.0190813, 0.056663, 0.00108459, 60.63, 60.63, 60.63, 0.0, 0.0, 1.0, -360.0, 360.0],
     [29, 267, 0.0244295, 0.0641456, 0.00258533, 81.86, 81.86, 81.86, 0.0, 0.0, 1.0, -360.0, 360.0],
     [29, 557, 0.00231061, 0.00635728, 0.000323514, 96.22, 96.22, 96.22, 0.0, 0.0, 1.0, -360.0, 360.0],
     [29, 557, 0.00231061, 0.00635728, 0.000323514, 109.17, 109.17, 109.17, 0.0, 0.0, 1.0, -360.0, 360.0],
     [30, 31, 0.0017784, 0.0116988, 0.00650237, 191.0, 191.0, 191.0, 0.0, 0.0, 1.0, -360.0, 360.0],
     [31, 33, 0.000274453, 0.00119906, 0.0, 99999.0, 99999.0, 99999.0, 0.0, 0.0, 1.0, -360.0, 360.0],
     [31, 42, 0.00623491, 0.0279952, 0.00721758, 229.38, 229.38, 229.38, 0.0, 0.0, 1.0, -360.0, 360.0],
     [32, 17, 0.0264094, 0.065065, 0.0020865, 68.42, 68.42, 68.42, 0.0, 0.0, 1.0, -360.0, 360.0],
     [32, 17, 0.0264094, 0.065065, 0.0020865, 68.42, 68.42, 68.42, 0.0, 0.0, 1.0, -360.0, 360.0],
     [32, 283, 0.0142241, 0.0432463, 0.00220303, 67.66, 67.66, 67.66, 0.0, 0.0, 1.0, -360.0, 360.0],
     [32, 283, 0.0142241, 0.0432463, 0.00220303, 67.66, 67.66, 67.66, 0.0, 0.0, 1.0, -360.0, 360.0],
     [34, 31, 0.003786, 0.0214023, 0.00785309, 232.2, 232.2, 232.2, 0.0, 0.0, 1.0, -360.0, 360.0],
     [34, 31, 0.003786, 0.0214023, 0.00785309, 232.2, 232.2, 232.2, 0.0, 0.0, 1.0, -360.0, 360.0],
     [34, 39, 0.00416941, 0.0265708, 0.00900656, 241.19, 241.19, 241.19, 0.0, 0.0, 1.0, -360.0, 360.0],
     [34, 39, 0.00416941, 0.0265708, 0.00900656, 241.19, 241.19, 241.19, 0.0, 0.0, 1.0, -360.0, 360.0],
     [34, 564, 0.00581665, 0.0316411, 0.00756963, 215.42, 215.42, 215.42, 0.0, 0.0, 1.0, -360.0, 360.0],
     [35, 238, 0.0300367, 0.0904545, 0.00848998, 62.8, 62.8, 62.8, 0.0, 0.0, 1.0, -360.0, 360.0],
     [35, 557, 0.0312946, 0.0706114, 0.00282773, 76.09, 76.09, 76.09, 0.0, 0.0, 1.0, -360.0, 360.0],
     [35, 557, 0.0312946, 0.0706114, 0.00282773, 76.09, 76.09, 76.09, 0.0, 0.0, 1.0, -360.0, 360.0],
     [35, 557, 0.0312946, 0.0706114, 0.00282773, 76.09, 76.09, 76.09, 0.0, 0.0, 1.0, -360.0, 360.0],
     [36, 35, 0.0265135, 0.047453, 0.00141328, 68.8, 68.8, 68.8, 0.0, 0.0, 1.0, -360.0, 360.0],
     [36, 35, 0.0265135, 0.047453, 0.00141328, 68.8, 68.8, 68.8, 0.0, 0.0, 1.0, -360.0, 360.0],
     [36, 245, 0.0293616, 0.0673862, 0.0011626, 49.63, 49.63, 49.63, 0.0, 0.0, 1.0, -360.0, 360.0],
     [36, 249, 0.00801014, 0.0261499, 0.00092202, 75.41, 75.41, 75.41, 0.0, 0.0, 1.0, -360.0, 360.0],
     [36, 249, 0.00801014, 0.0261499, 0.00092202, 75.41, 75.41, 75.41, 0.0, 0.0, 1.0, -360.0, 360.0],
     [36, 249, 0.00801014, 0.0261499, 0.00092202, 75.41, 75.41, 75.41, 0.0, 0.0, 1.0, -360.0, 360.0],
     [36, 557, 0.0164183, 0.0420729, 0.0024045, 101.25, 101.25, 101.25, 0.0, 0.0, 1.0, -360.0, 360.0],
     [37, 21, 0.0161314, 0.0299526, 0.00131014, 73.06, 73.06, 73.06, 0.0, 0.0, 1.0, -360.0, 360.0],
     [37, 35, 0.0126768, 0.0268139, 0.00271526, 77.95, 77.95, 77.95, 0.0, 0.0, 1.0, -360.0, 360.0],
     [37, 35, 0.0126768, 0.0268139, 0.00271526, 77.95, 77.95, 77.95, 0.0, 0.0, 1.0, -360.0, 360.0],
     [37, 35, 0.0126768, 0.0268139, 0.00271526, 77.95, 77.95, 77.95, 0.0, 0.0, 1.0, -360.0, 360.0],
     [37, 38, 0.0187055, 0.0608938, 0.00196692, 68.2, 68.2, 68.2, 0.0, 0.0, 1.0, -360.0, 360.0],
     [37, 38, 0.0187055, 0.0608938, 0.00196692, 68.2, 68.2, 68.2, 0.0, 0.0, 1.0, -360.0, 360.0],
     [37, 87, 0.0221178, 0.0564016, 0.00139673, 86.12, 86.12, 86.12, 0.0, 0.0, 1.0, -360.0, 360.0],
     [38, 173, 0.0177711, 0.0570116, 0.00116236, 92.96, 92.96, 92.96, 0.0, 0.0, 1.0, -360.0, 360.0],
     [40, 263, 0.0271487, 0.0714019, 0.00446768, 55.15, 55.15, 55.15, 0.0, 0.0, 1.0, -360.0, 360.0],
     [40, 276, 0.0226872, 0.0486309, 0.000835191, 72.1, 72.1, 72.1, 0.0, 0.0, 1.0, -360.0, 360.0],
     [40, 276, 0.0226872, 0.0486309, 0.000835191, 72.1, 72.1, 72.1, 0.0, 0.0, 1.0, -360.0, 360.0],
     [42, 14, 0.00495081, 0.0249773, 0.0106939, 198.72, 198.72, 198.72, 0.0, 0.0, 1.0, -360.0, 360.0],
     [42, 44, 0.000209978, 0.00108899, 0.0, 99999.0, 99999.0, 99999.0, 0.0, 0.0, 1.0, -360.0, 360.0],
     [43, 46, 0.0241647, 0.0448606, 0.00129086, 89.95, 89.95, 89.95, 0.0, 0.0, 1.0, -360.0, 360.0],
     [45, 46, 0.0251788, 0.0603475, 0.00162961, 107.1, 107.1, 107.1, 0.0, 0.0, 1.0, -360.0, 360.0],
     [45, 275, 0.0163836, 0.035907, 0.00183584, 66.64, 66.64, 66.64, 0.0, 0.0, 1.0, -360.0, 360.0],
     [46, 209, 0.0238416, 0.0619123, 0.0025303, 76.82, 76.82, 76.82, 0.0, 0.0, 1.0, -360.0, 360.0],
     [47, 50, 0.000237887, 0.00109477, 0.0, 99999.0, 99999.0, 99999.0, 0.0, 0.0, 1.0, -360.0, 360.0],
     [47, 524, 0.000539494, 0.00584139, 0.118909, 1062.02, 1062.02, 1062.02, 0.0, 0.0, 1.0, -360.0, 360.0],
     [48, 73, 0.0147435, 0.0749894, 0.0160216, 226.94, 226.94, 226.94, 0.0, 0.0, 1.0, -360.0, 360.0],
     [48, 534, 0.00216759, 0.0137543, 0.0523514, 269.8, 269.8, 269.8, 0.0, 0.0, 1.0, -360.0, 360.0],
     [48, 534, 0.00216759, 0.0137543, 0.0523514, 269.8, 269.8, 269.8, 0.0, 0.0, 1.0, -360.0, 360.0],
     [48, 534, 0.00216759, 0.0137543, 0.0523514, 269.8, 269.8, 269.8, 0.0, 0.0, 1.0, -360.0, 360.0],
     [49, 60, 0.0218319, 0.051633, 0.00357013, 71.51, 71.51, 71.51, 0.0, 0.0, 1.0, -360.0, 360.0],
     [51, 61, 0.0394089, 0.115713, 0.0202389, 110.0, 110.0, 110.0, 0.0, 0.0, 1.0, -360.0, 360.0],
     [51, 200, 0.0312098, 0.0713229, 0.00237936, 112.35, 112.35, 112.35, 0.0, 0.0, 1.0, -360.0, 360.0],
     [52, 54, 0.000204513, 0.00101533, 0.0, 99999.0, 99999.0, 99999.0, 0.0, 0.0, 1.0, -360.0, 360.0],
     [52, 159, 0.000268521, 0.00355215, 0.0808721, 1160.4, 1160.4, 1160.4, 0.0, 0.0, 1.0, -360.0, 360.0],
     [53, 158, 0.00438862, 0.024717, 0.00913984, 247.5, 247.5, 247.5, 0.0, 0.0, 1.0, -360.0, 360.0],
     [53, 193, 0.00421062, 0.0273134, 0.0266542, 259.13, 259.13, 259.13, 0.0, 0.0, 1.0, -360.0, 360.0],
     [53, 193, 0.00421062, 0.0273134, 0.0266542, 259.13, 259.13, 259.13, 0.0, 0.0, 1.0, -360.0, 360.0],
     [53, 193, 0.00421062, 0.0273134, 0.0266542, 259.13, 259.13, 259.13, 0.0, 0.0, 1.0, -360.0, 360.0],
     [53, 521, 0.00640328, 0.0509321, 0.00899089, 295.34, 295.34, 295.34, 0.0, 0.0, 1.0, -360.0, 360.0],
     [53, 521, 0.00640328, 0.0509321, 0.00899089, 295.34, 295.34, 295.34, 0.0, 0.0, 1.0, -360.0, 360.0],
     [55, 48, 0.0054273, 0.0328757, 0.0133538, 200.97, 200.97, 200.97, 0.0, 0.0, 1.0, -360.0, 360.0],
     [55, 53, 0.00501826, 0.0245394, 0.0149817, 287.21, 287.21, 287.21, 0.0, 0.0, 1.0, -360.0, 360.0],
     [55, 53, 0.00501826, 0.0245394, 0.0149817, 287.21, 287.21, 287.21, 0.0, 0.0, 1.0, -360.0, 360.0],
     [55, 53, 0.00501826, 0.0245394, 0.0149817, 287.21, 287.21, 287.21, 0.0, 0.0, 1.0, -360.0, 360.0],
     [55, 57, 0.000297933, 0.00100615, 0.0, 99999.0, 99999.0, 99999.0, 0.0, 0.0, 1.0, -360.0, 360.0],
     [55, 521, 0.0060725, 0.0302758, 0.0132185, 226.91, 226.91, 226.91, 0.0, 0.0, 1.0, -360.0, 360.0],
     [55, 534, 0.00415165, 0.0209214, 0.0199132, 278.07, 278.07, 278.07, 0.0, 0.0, 1.0, -360.0, 360.0],
     [55, 534, 0.00415165, 0.0209214, 0.0199132, 278.07, 278.07, 278.07, 0.0, 0.0, 1.0, -360.0, 360.0],
     [55, 534, 0.00415165, 0.0209214, 0.0199132, 278.07, 278.07, 278.07, 0.0, 0.0, 1.0, -360.0, 360.0],
     [55, 538, 0.0124503, 0.0306121, 0.0100872, 241.11, 241.11, 241.11, 0.0, 0.0, 1.0, -360.0, 360.0],
     [55, 538, 0.0124503, 0.0306121, 0.0100872, 241.11, 241.11, 241.11, 0.0, 0.0, 1.0, -360.0, 360.0],
     [58, 56, 0.0232941, 0.04945, 0.00381086, 81.24, 81.24, 81.24, 0.0, 0.0, 1.0, -360.0, 360.0],
     [58, 56, 0.0232941, 0.04945, 0.00381086, 81.24, 81.24, 81.24, 0.0, 0.0, 1.0, -360.0, 360.0],
     [58, 56, 0.0232941, 0.04945, 0.00381086, 81.24, 81.24, 81.24, 0.0, 0.0, 1.0, -360.0, 360.0],
     [59, 528, 0.0218772, 0.0556881, 0.00172262, 73.29, 73.29, 73.29, 0.0, 0.0, 1.0, -360.0, 360.0],
     [59, 528, 0.0218772, 0.0556881, 0.00172262, 80.37, 80.37, 80.37, 0.0, 0.0, 1.0, -360.0, 360.0],
     [60, 59, 0.0260598, 0.0575497, 0.00437377, 65.99, 65.99, 65.99, 0.0, 0.0, 1.0, -360.0, 360.0],
     [60, 59, 0.0260598, 0.0575497, 0.00437377, 65.99, 65.99, 65.99, 0.0, 0.0, 1.0, -360.0, 360.0],
     [60, 66, 0.0716723, 0.182181, 0.0051759, 70.21, 70.21, 70.21, 0.0, 0.0, 1.0, -360.0, 360.0],
     [63, 65, 0.000239799, 0.0010442, 0.0, 99999.0, 99999.0, 99999.0, 0.0, 0.0, 1.0, -360.0, 360.0],
     [63, 73, 0.00899317, 0.0441317, 0.021161, 204.65, 204.65, 204.65, 0.0, 0.0, 1.0, -360.0, 360.0],
     [64, 61, 0.0247274, 0.0504625, 0.00389364, 69.75, 69.75, 69.75, 0.0, 0.0, 1.0, -360.0, 360.0],
     [64, 62, 0.0185909, 0.0516831, 0.00336356, 49.99, 49.99, 49.99, 0.0, 0.0, 1.0, -360.0, 360.0],
     [66, 70, 0.0775854, 0.186854, 0.00374987, 55.84, 55.84, 55.84, 0.0, 0.0, 1.0, -360.0, 360.0],
     [67, 69, 0.000247637, 0.00109325, 0.0, 99999.0, 99999.0, 99999.0, 0.0, 0.0, 1.0, -360.0, 360.0],
     [67, 71, 0.01, 0.07, 0.0, 220.0, 220.0, 220.0, 0.0, 0.0, 1.0, -360.0, 360.0],
     [67, 84, 0.0174435, 0.0973726, 0.062295, 193.76, 193.76, 193.76, 0.0, 0.0, 1.0, -360.0, 360.0],
     [68, 114, 0.0576338, 0.0976108, 0.00478169, 50.8, 50.8, 50.8, 0.0, 0.0, 1.0, -360.0, 360.0],
     [68, 540, 0.140015, 0.345219, 0.0176072, 49.46, 49.46, 49.46, 0.0, 0.0, 1.0, -360.0, 360.0],
     [70, 68, 0.295903, 0.4766, 0.0102401, 66.17, 66.17, 66.17, 0.0, 0.0, 1.0, -360.0, 360.0],
     [70, 68, 0.295903, 0.4766, 0.0102401, 66.17, 66.17, 66.17, 0.0, 0.0, 1.0, -360.0, 360.0],
     [71, 73, 0.000258197, 0.00116176, 0.0, 99999.0, 99999.0, 99999.0, 0.0, 0.0, 1.0, -360.0, 360.0],
     [72, 62, 0.0615458, 0.136756, 0.00335725, 68.81, 68.81, 68.81, 0.0, 0.0, 1.0, -360.0, 360.0],
     [72, 70, 0.0432172, 0.104951, 0.00449017, 65.12, 65.12, 65.12, 0.0, 0.0, 1.0, -360.0, 360.0],
     [74, 75, 0.0157799, 0.0362398, 0.00373355, 44.56, 44.56, 44.56, 0.0, 0.0, 1.0, -360.0, 360.0],
     [75, 77, 0.0160396, 0.051732, 0.00218375, 47.39, 47.39, 47.39, 0.0, 0.0, 1.0, -360.0, 360.0],
     [76, 78, 0.000244189, 0.00106703, 0.0, 99999.0, 99999.0, 99999.0, 0.0, 0.0, 1.0, -360.0, 360.0],
     [77, 80, 0.106385, 0.288295, 0.0321868, 43.17, 43.17, 43.17, 0.0, 0.0, 1.0, -360.0, 360.0],
     [79, 81, 0.000291143, 0.00109582, 0.0, 99999.0, 99999.0, 99999.0, 0.0, 0.0, 1.0, -360.0, 360.0],
     [79, 583, 0.0107739, 0.0577945, 0.0467452, 203.21, 203.21, 203.21, 0.0, 0.0, 1.0, -360.0, 360.0],
     [80, 582, 0.136555, 0.418502, 0.00591819, 52.91, 52.91, 52.91, 0.0, 0.0, 1.0, -360.0, 360.0],
     [82, 80, 0.0670566, 0.179301, 0.00424244, 51.02, 51.02, 51.02, 0.0, 0.0, 1.0, -360.0, 360.0],
     [83, 85, 0.000215668, 0.00115619, 0.0, 99999.0, 99999.0, 99999.0, 0.0, 0.0, 1.0, -360.0, 360.0],
     [84, 79, 0.0174229, 0.104359, 0.0364631, 178.64, 178.64, 178.64, 0.0, 0.0, 1.0, -360.0, 360.0],
     [84, 83, 7.7e-05, 0.005637, 0.0, 249.81, 249.81, 249.81, 0.0, 0.0, 1.0, -360.0, 360.0],
     [86, 30, 0.00215456, 0.0116695, 0.0201028, 223.69, 223.69, 223.69, 0.0, 0.0, 1.0, -360.0, 360.0],
     [86, 88, 0.000272636, 0.0010805, 0.0, 99999.0, 99999.0, 99999.0, 0.0, 0.0, 1.0, -360.0, 360.0],
     [86, 548, 0.00655185, 0.0267685, 0.00992387, 261.71, 261.71, 261.71, 0.0, 0.0, 1.0, -360.0, 360.0],
     [86, 548, 0.00655185, 0.0267685, 0.00992387, 261.71, 261.71, 261.71, 0.0, 0.0, 1.0, -360.0, 360.0],
     [87, 16, 0.00903103, 0.0200972, 0.000811898, 75.33, 75.33, 75.33, 0.0, 0.0, 1.0, -360.0, 360.0],
     [87, 16, 0.00903103, 0.0200972, 0.000811898, 75.33, 75.33, 75.33, 0.0, 0.0, 1.0, -360.0, 360.0],
     [87, 16, 0.00903103, 0.0200972, 0.000811898, 75.33, 75.33, 75.33, 0.0, 0.0, 1.0, -360.0, 360.0],
     [87, 245, 0.0215529, 0.0452311, 0.00579575, 57.45, 57.45, 57.45, 0.0, 0.0, 1.0, -360.0, 360.0],
     [89, 91, 0.000262292, 0.00112916, 0.0, 99999.0, 99999.0, 99999.0, 0.0, 0.0, 1.0, -360.0, 360.0],
     [89, 106, 0.0049332, 0.027038, 0.0145293, 339.82, 339.82, 339.82, 0.0, 0.0, 1.0, -360.0, 360.0],
     [89, 106, 0.0049332, 0.027038, 0.0145293, 339.82, 339.82, 339.82, 0.0, 0.0, 1.0, -360.0, 360.0],
     [89, 106, 0.0049332, 0.027038, 0.0145293, 339.82, 339.82, 339.82, 0.0, 0.0, 1.0, -360.0, 360.0],
     [89, 256, 0.00321876, 0.0194069, 0.0071382, 400.54, 400.54, 400.54, 0.0, 0.0, 1.0, -360.0, 360.0],
     [89, 382, 0.00247514, 0.0157938, 0.0257527, 340.14, 340.14, 340.14, 0.0, 0.0, 1.0, -360.0, 360.0],
     [90, 101, 0.0135841, 0.0402193, 0.000924601, 61.72, 61.72, 61.72, 0.0, 0.0, 1.0, -360.0, 360.0],
     [90, 241, 0.0103536, 0.0265833, 0.00234702, 66.61, 66.61, 66.61, 0.0, 0.0, 1.0, -360.0, 360.0],
     [90, 241, 0.0103536, 0.0265833, 0.00234702, 66.61, 66.61, 66.61, 0.0, 0.0, 1.0, -360.0, 360.0],
     [90, 255, 0.0163281, 0.0386576, 0.00633577, 79.03, 79.03, 79.03, 0.0, 0.0, 1.0, -360.0, 360.0],
     [90, 255, 0.0163281, 0.0386576, 0.00633577, 79.03, 79.03, 79.03, 0.0, 0.0, 1.0, -360.0, 360.0],
     [90, 255, 0.0163281, 0.0386576, 0.00633577, 79.03, 79.03, 79.03, 0.0, 0.0, 1.0, -360.0, 360.0],
     [92, 98, 0.00878045, 0.0230698, 0.00110421, 100.76, 100.76, 100.76, 0.0, 0.0, 1.0, -360.0, 360.0],
     [92, 330, 0.00678989, 0.0170465, 0.00477099, 74.17, 74.17, 74.17, 0.0, 0.0, 1.0, -360.0, 360.0],
     [94, 262, 0.0142721, 0.029344, 0.0017331, 79.5, 79.5, 79.5, 0.0, 0.0, 1.0, -360.0, 360.0],
     [94, 262, 0.0142721, 0.029344, 0.0017331, 79.5, 79.5, 79.5, 0.0, 0.0, 1.0, -360.0, 360.0],
     [94, 262, 0.0142721, 0.029344, 0.0017331, 79.5, 79.5, 79.5, 0.0, 0.0, 1.0, -360.0, 360.0],
     [95, 107, 0.0232242, 0.0598063, 0.000771374, 83.77, 83.77, 83.77, 0.0, 0.0, 1.0, -360.0, 360.0],
     [95, 323, 0.0212776, 0.0554299, 0.00227383, 69.02, 69.02, 69.02, 0.0, 0.0, 1.0, -360.0, 360.0],
     [96, 105, 0.000408666, 0.00511537, 0.138302, 1367.07, 1367.07, 1367.07, 0.0, 0.0, 1.0, -360.0, 360.0],
     [96, 337, 0.0011469, 0.0134575, 0.247207, 1220.57, 1220.57, 1220.57, 0.0, 0.0, 1.0, -360.0, 360.0],
     [97, 99, 0.000240917, 0.00106504, 0.0, 99999.0, 99999.0, 99999.0, 0.0, 0.0, 1.0, -360.0, 360.0],
     [98, 104, 0.0153055, 0.0407224, 0.00263142, 84.93, 84.93, 84.93, 0.0, 0.0, 1.0, -360.0, 360.0],
     [98, 104, 0.0153055, 0.0407224, 0.00263142, 84.93, 84.93, 84.93, 0.0, 0.0, 1.0, -360.0, 360.0],
...
	])


## generator cost data
# 1 startup shutdown n x1 y1 ... xn yn
# 2 startup shutdown n c(n-1) ... c0
	ppc["gencost"] = array([
     [2, 0, 0, 3, 0.01633, 21.37, 0.0],
     [2, 0, 0, 3, 0.01202, 21.1, 0.0],
     [2, 0, 0, 3, 0.01656, 22.01, 0.0],
     [2, 0, 0, 3, 0.01213, 19.75, 0.0],
     [2, 0, 0, 3, 0.01459, 24.09, 0.0],
     [2, 0, 0, 3, 0.01908, 19.76, 0.0],
     [2, 0, 0, 3, 0.0, 17.0, 0.0],
     [2, 0, 0, 3, 0.00103, 9.129, 0.0],
     [2, 0, 0, 3, 0.001759, 8.167, 0.0],
     [2, 0, 0, 3, 0.01985, 17.37, 0.0],
     [2, 0, 0, 3, 0.01402, 21.62, 0.0],
     [2, 0, 0, 3, 0.0159, 19.4, 0.0],
     [2, 0, 0, 3, 0.01907, 19.25, 0.0],
     [2, 0, 0, 3, 0.0, 30.0, 0.0],
     [2, 0, 0, 3, 0.0, 30.0, 0.0],
     [2, 0, 0, 3, 0.0, 30.0, 0.0],
     [2, 0, 0, 3, 0.01391, 16.01, 0.0],
     [2, 0, 0, 3, 0.01059, 18.9, 0.0],
     [2, 0, 0, 3, 0.01383, 17.44, 0.0],
     [2, 0, 0, 3, 0.01392, 15.92, 0.0],
     [2, 0, 0, 3, 0.0017, 8.322, 0.0],
     [2, 0, 0, 3, 0.001699, 8.325, 0.0],
     [2, 0, 0, 3, 0.0, 16.728, 0.0],
     [2, 0, 0, 3, 0.0145, 14.87, 0.0],
     [2, 0, 0, 3, 0.02017, 17.96, 0.0],
     [2, 0, 0, 3, 0.01708, 16.48, 0.0],
     [2, 0, 0, 3, 0.01358, 14.24, 0.0],
     [2, 0, 0, 3, 0.02042, 25.4, 0.0],
     [2, 0, 0, 3, 0.02065, 22.28, 0.0],
     [2, 0, 0, 3, 0.01162, 29.89, 0.0],
     [2, 0, 0, 3, 0.02698, 23.34, 0.0],
     [2, 0, 0, 3, 0.0, 30.0, 0.0],
     [2, 0, 0, 3, 0.0, 30.0, 0.0],
     [2, 0, 0, 3, 0.0, 30.0, 0.0],
     [2, 0, 0, 3, 0.0, 30.0, 0.0],
     [2, 0, 0, 3, 0.0, 30.0, 0.0],
     [2, 0, 0, 3, 0.0, 30.0, 0.0],
     [2, 0, 0, 3, 0.01864, 19.46, 0.0],
     [2, 0, 0, 3, 0.02025, 21.28, 0.0],
     [2, 0, 0, 3, 0.0, 15.265, 0.0],
     [2, 0, 0, 3, 0.01264, 21.19, 0.0],
     [2, 0, 0, 3, 0.01249, 20.53, 0.0],
     [2, 0, 0, 3, 0.01929, 17.33, 0.0],
     [2, 0, 0, 3, 0.02341, 27.19, 0.0],
     [2, 0, 0, 3, 0.02612, 28.97, 0.0],
     [2, 0, 0, 3, 0.0, 27.99, 0.0],
     [2, 0, 0, 3, 0.0, 30.0, 0.0],
     [2, 0, 0, 3, 0.03375, 29.9, 0.0],
     [2, 0, 0, 3, 0.03004, 32.67, 0.0],
     [2, 0, 0, 3, 0.0281, 29.57, 0.0],
     [2, 0, 0, 3, 0.02786, 27.39, 0.0],
     [2, 0, 0, 3, 0.02526, 34.17, 0.0],
     [2, 0, 0, 3, 0.0296, 27.69, 0.0],
     [2, 0, 0, 3, 0.0306, 27.07, 0.0],
     [2, 0, 0, 3, 0.0347, 31.91, 0.0],
     [2, 0, 0, 3, 0.0268, 30.99, 0.0],
     [2, 0, 0, 3, 0.0315, 30.79, 0.0],
     [2, 0, 0, 3, 0.03024, 30.23, 0.0],
     [2, 0, 0, 3, 0.02719, 29.53, 0.0],
     [2, 0, 0, 3, 0.01859, 30.36, 0.0],
     [2, 0, 0, 3, 0.01994, 29.9, 0.0],
     [2, 0, 0, 3, 0.02657, 25.4, 0.0],
     [2, 0, 0, 3, 0.0267, 30.43, 0.0],
     [2, 0, 0, 3, 0.029, 26.4, 0.0],
     [2, 0, 0, 3, 0.02399, 29.87, 0.0],
     [2, 0, 0, 3, 0.01814, 33.13, 0.0],
     [2, 0, 0, 3, 0.02963, 28.73, 0.0],
     [2, 0, 0, 3, 0.02888, 34.36, 0.0],
     [2, 0, 0, 3, 0.0253, 36.57, 0.0],
     [2, 0, 0, 3, 0.02194, 39.92, 0.0],
     [2, 0, 0, 3, 0.02213, 31.19, 0.0],
     [2, 0, 0, 3, 0.02108, 33.81, 0.0],
     [2, 0, 0, 3, 0.0, 28.582500000000003, 0.0],
     [2, 0, 0, 3, 0.028790000000000003, 29.549999999999997, 0.0],
     [2, 0, 0, 3, 0.02837, 27.65, 0.0],
     [2, 0, 0, 3, 0.02073, 30.25, 0.0],
     [2, 0, 0, 3, 0.0, 30.0, 0.0],
     [2, 0, 0, 3, 0.03427, 27.54, 0.0],
     [2, 0, 0, 3, 0.02221, 30.39, 0.0],
     [2, 0, 0, 3, 0.02558, 29.29, 0.0],
     [2, 0, 0, 3, 0.0, 30.0, 0.0],
     [2, 0, 0, 3, 0.0, 30.0, 0.0],
     [2, 0, 0, 3, 0.0, 30.0, 0.0],
     [2, 0, 0, 3, 0.0, 28.963333333333335, 0.0],
     [2, 0, 0, 3, 0.0, 0.0, 0.0],
     [2, 0, 0, 3, 0.02075, 26.75, 0.0],
     [2, 0, 0, 3, 0.01686, 30.82, 0.0],
     [2, 0, 0, 3, 0.0, 25.33, 0.0],
     [2, 0, 0, 3, 0.0, 0.0, 0.0],
     [2, 0, 0, 3, 0.02695, 39.13, 0.0],
     [2, 0, 0, 3, 0.02893, 34.57, 0.0],
     [2, 0, 0, 3, 0.02795, 37.18, 0.0],
     [2, 0, 0, 3, 0.03193, 29.68, 0.0],
     [2, 0, 0, 3, 0.02565, 26.95, 0.0],
     [2, 0, 0, 3, 0.03269, 35.34, 0.0],
     [2, 0, 0, 3, 0.02369, 38.06, 0.0],
     [2, 0, 0, 3, 0.03017, 29.84, 0.0],
     [2, 0, 0, 3, 0.03019, 29.9, 0.0],
     [2, 0, 0, 3, 0.01777, 33.22, 0.0],
     [2, 0, 0, 3, 0.01855, 32.79, 0.0],
     [2, 0, 0, 3, 0.03083, 29.76, 0.0],
...